FoamFile
{
    version     1906;
    format      ascii;
    class       dictionary;
    location    "constant";
    object      position;
}
// >>>>>>>>>>>>>>>>>>>>>>>>>>Hui Cheng>>>>>>>>>>>>>>>>>>>>>>>>>>>>>>> //
{
numOfPoint   96;
p0	( 0.05	0.0	0.0 );
p1	( 0.04619397662556434	0.01913417161825449	0.0 );
p2	( 0.03535533905932738	0.035355339059327376	0.0 );
p3	( 0.019134171618254495	0.04619397662556434	0.0 );
p4	( 3.061616997868383e-18	0.05	0.0 );
p5	( -0.019134171618254488	0.04619397662556434	0.0 );
p6	( -0.035355339059327376	0.03535533905932738	0.0 );
p7	( -0.04619397662556434	0.019134171618254495	0.0 );
p8	( -0.05	6.123233995736766e-18	0.0 );
p9	( -0.04619397662556435	-0.019134171618254484	0.0 );
p10	( -0.03535533905932738	-0.035355339059327376	0.0 );
p11	( -0.01913417161825452	-0.04619397662556433	0.0 );
p12	( -9.184850993605149e-18	-0.05	0.0 );
p13	( 0.0191341716182545	-0.046193976625564334	0.0 );
p14	( 0.03535533905932737	-0.03535533905932738	0.0 );
p15	( 0.04619397662556433	-0.019134171618254522	0.0 );
p16	( 0.05	0.0	-0.02 );
p17	( 0.04619397662556434	0.01913417161825449	-0.02 );
p18	( 0.03535533905932738	0.035355339059327376	-0.02 );
p19	( 0.019134171618254495	0.04619397662556434	-0.02 );
p20	( 3.061616997868383e-18	0.05	-0.02 );
p21	( -0.019134171618254488	0.04619397662556434	-0.02 );
p22	( -0.035355339059327376	0.03535533905932738	-0.02 );
p23	( -0.04619397662556434	0.019134171618254495	-0.02 );
p24	( -0.05	6.123233995736766e-18	-0.02 );
p25	( -0.04619397662556435	-0.019134171618254484	-0.02 );
p26	( -0.03535533905932738	-0.035355339059327376	-0.02 );
p27	( -0.01913417161825452	-0.04619397662556433	-0.02 );
p28	( -9.184850993605149e-18	-0.05	-0.02 );
p29	( 0.0191341716182545	-0.046193976625564334	-0.02 );
p30	( 0.03535533905932737	-0.03535533905932738	-0.02 );
p31	( 0.04619397662556433	-0.019134171618254522	-0.02 );
p32	( 0.05	0.0	-0.04 );
p33	( 0.04619397662556434	0.01913417161825449	-0.04 );
p34	( 0.03535533905932738	0.035355339059327376	-0.04 );
p35	( 0.019134171618254495	0.04619397662556434	-0.04 );
p36	( 3.061616997868383e-18	0.05	-0.04 );
p37	( -0.019134171618254488	0.04619397662556434	-0.04 );
p38	( -0.035355339059327376	0.03535533905932738	-0.04 );
p39	( -0.04619397662556434	0.019134171618254495	-0.04 );
p40	( -0.05	6.123233995736766e-18	-0.04 );
p41	( -0.04619397662556435	-0.019134171618254484	-0.04 );
p42	( -0.03535533905932738	-0.035355339059327376	-0.04 );
p43	( -0.01913417161825452	-0.04619397662556433	-0.04 );
p44	( -9.184850993605149e-18	-0.05	-0.04 );
p45	( 0.0191341716182545	-0.046193976625564334	-0.04 );
p46	( 0.03535533905932737	-0.03535533905932738	-0.04 );
p47	( 0.04619397662556433	-0.019134171618254522	-0.04 );
p48	( 0.05	0.0	-0.06000000000000001 );
p49	( 0.04619397662556434	0.01913417161825449	-0.06000000000000001 );
p50	( 0.03535533905932738	0.035355339059327376	-0.06000000000000001 );
p51	( 0.019134171618254495	0.04619397662556434	-0.06000000000000001 );
p52	( 3.061616997868383e-18	0.05	-0.06000000000000001 );
p53	( -0.019134171618254488	0.04619397662556434	-0.06000000000000001 );
p54	( -0.035355339059327376	0.03535533905932738	-0.06000000000000001 );
p55	( -0.04619397662556434	0.019134171618254495	-0.06000000000000001 );
p56	( -0.05	6.123233995736766e-18	-0.06000000000000001 );
p57	( -0.04619397662556435	-0.019134171618254484	-0.06000000000000001 );
p58	( -0.03535533905932738	-0.035355339059327376	-0.06000000000000001 );
p59	( -0.01913417161825452	-0.04619397662556433	-0.06000000000000001 );
p60	( -9.184850993605149e-18	-0.05	-0.06000000000000001 );
p61	( 0.0191341716182545	-0.046193976625564334	-0.06000000000000001 );
p62	( 0.03535533905932737	-0.03535533905932738	-0.06000000000000001 );
p63	( 0.04619397662556433	-0.019134171618254522	-0.06000000000000001 );
p64	( 0.05	0.0	-0.08 );
p65	( 0.04619397662556434	0.01913417161825449	-0.08 );
p66	( 0.03535533905932738	0.035355339059327376	-0.08 );
p67	( 0.019134171618254495	0.04619397662556434	-0.08 );
p68	( 3.061616997868383e-18	0.05	-0.08 );
p69	( -0.019134171618254488	0.04619397662556434	-0.08 );
p70	( -0.035355339059327376	0.03535533905932738	-0.08 );
p71	( -0.04619397662556434	0.019134171618254495	-0.08 );
p72	( -0.05	6.123233995736766e-18	-0.08 );
p73	( -0.04619397662556435	-0.019134171618254484	-0.08 );
p74	( -0.03535533905932738	-0.035355339059327376	-0.08 );
p75	( -0.01913417161825452	-0.04619397662556433	-0.08 );
p76	( -9.184850993605149e-18	-0.05	-0.08 );
p77	( 0.0191341716182545	-0.046193976625564334	-0.08 );
p78	( 0.03535533905932737	-0.03535533905932738	-0.08 );
p79	( 0.04619397662556433	-0.019134171618254522	-0.08 );
p80	( 0.05	0.0	-0.1 );
p81	( 0.04619397662556434	0.01913417161825449	-0.1 );
p82	( 0.03535533905932738	0.035355339059327376	-0.1 );
p83	( 0.019134171618254495	0.04619397662556434	-0.1 );
p84	( 3.061616997868383e-18	0.05	-0.1 );
p85	( -0.019134171618254488	0.04619397662556434	-0.1 );
p86	( -0.035355339059327376	0.03535533905932738	-0.1 );
p87	( -0.04619397662556434	0.019134171618254495	-0.1 );
p88	( -0.05	6.123233995736766e-18	-0.1 );
p89	( -0.04619397662556435	-0.019134171618254484	-0.1 );
p90	( -0.03535533905932738	-0.035355339059327376	-0.1 );
p91	( -0.01913417161825452	-0.04619397662556433	-0.1 );
p92	( -9.184850993605149e-18	-0.05	-0.1 );
p93	( 0.0191341716182545	-0.046193976625564334	-0.1 );
p94	( 0.03535533905932737	-0.03535533905932738	-0.1 );
p95	( 0.04619397662556433	-0.019134171618254522	-0.1 );
}
